
**** 11/15/25 20:37:36 ******* PSpice Lite (March 2016) ******* ID# 10813 ****

 ** Profile: "SCHEMATIC1-deriva_termica"  [ c:\users\crist\desktop\test\proiect-cef2-pspicefiles\schematic1\deriva_termica.sim ] 


 ****     CIRCUIT DESCRIPTION


******************************************************************************




** Creating circuit file "deriva_termica.cir" 
** WARNING: THIS AUTOMATICALLY GENERATED FILE MAY BE OVERWRITTEN BY SUBSEQUENT SIMULATIONS

*Libraries: 
* Profile Libraries :
* Local Libraries :
.LIB "c:/users/crist/desktop/lib_modelepspice_anexa_1/lib_modelepspice_anexa_1/modele_a1_lib/1n4148.lib" 
.LIB "c:/users/crist/desktop/lib_modelepspice_anexa_1/lib_modelepspice_anexa_1/modele_a1_lib/bc807-25.lib" 
.LIB "c:/users/crist/desktop/lib_modelepspice_anexa_1/lib_modelepspice_anexa_1/modele_a1_lib/bc817-25.lib" 
.LIB "c:/users/crist/desktop/lib_modelepspice_anexa_1/lib_modelepspice_anexa_1/modele_a1_lib/bc846b.lib" 
.LIB "c:/users/crist/desktop/lib_modelepspice_anexa_1/lib_modelepspice_anexa_1/modele_a1_lib/bc856b.lib" 
.LIB "c:/users/crist/desktop/lib_modelepspice_anexa_1/lib_modelepspice_anexa_1/modele_a1_lib/bzx84c2v7.lib" 
.LIB "c:/users/crist/desktop/lib_modelepspice_anexa_1/lib_modelepspice_anexa_1/modele_a1_lib/bzx84c5v1.lib" 
.LIB "c:/users/crist/desktop/lib_modelepspice_anexa_1/lib_modelepspice_anexa_1/modele_a1_lib/bzx84c5v6.lib" 
.LIB "c:/users/crist/desktop/lib_modelepspice_anexa_1/lib_modelepspice_anexa_1/modele_a1_lib/bzx84c6v2.lib" 
.LIB "c:/users/crist/desktop/lib_modelepspice_anexa_1/lib_modelepspice_anexa_1/modele_a1_lib/bzx84c6v8.lib" 
.LIB "c:/users/crist/desktop/lib_modelepspice_anexa_1/lib_modelepspice_anexa_1/modele_a1_lib/bzx84c8v2.lib" 
.LIB "c:/users/crist/desktop/lib_modelepspice_anexa_1/lib_modelepspice_anexa_1/modele_a1_lib/bzx84c10.lib" 
.LIB "c:/users/crist/desktop/lib_modelepspice_anexa_1/lib_modelepspice_anexa_1/modele_a1_lib/irfr120npbf.lib" 
.LIB "c:/users/crist/desktop/lib_modelepspice_anexa_1/lib_modelepspice_anexa_1/modele_a1_lib/mjd31cg.lib" 
.LIB "c:/users/crist/desktop/lib_modelepspice_anexa_1/lib_modelepspice_anexa_1/modele_a1_lib/mjd32cg.lib" 
.LIB "c:/users/crist/desktop/lib_modelepspice_anexa_1/lib_modelepspice_anexa_1/modele_a1_lib/mmbfj177lt1g.lib" 
.LIB "c:/users/crist/desktop/lib_modelepspice_anexa_1/lib_modelepspice_anexa_1/modele_a1_lib/mmbfj309lt1g.lib" 
* From [PSPICE NETLIST] section of C:\Users\crist\AppData\Roaming\SPB_Data\cdssetup\OrCAD_PSpice\17.2.0\PSpice.ini file:
.lib "nomd.lib" 

*Analysis directives: 
.DC DEC TEMP 10 60 0.1 
-------------------$
ERROR(ORPSIM-16151): Invalid integer
.OPTIONS ADVCONV
.PROBE64 V(alias(*)) I(alias(*)) W(alias(*)) D(alias(*)) NOISE(alias(*)) 
.INC "..\SCHEMATIC1.net" 



**** INCLUDING SCHEMATIC1.net ****
* source PROIECT-CEF2
V_V1         VIN 0 12Vdc
D_D4         0 N00248 BZX84C2V7/PLP 
R_R1         N00248 VIN  1.5k TC=0,0 
R_R2         N00244 VIN  100 TC=0,0 
R_R3         N00280 VIN  100 TC=0,0 
R_R4         N00920 N22121  100 TC=0,0 
R_R5         N00920 N22111  100 TC=0,0 
R_R6         N07409 VIN  2K TC=0,0 
R_R7         N01270 N22652  330 TC=0,0 
R_R8         0 N01270  68 TC=0,0 
R_R10         N23262 N22662  1.5k TC=0,0 
R_R11         0 N22314  50 TC=0,0 
R_R12         N16734 N04894  3.9k TC=0,0 
R_R14         N01633 N01641  100 TC=0,0 
R_R15         N01641 VOUT  1k TC=0,0 
R_R16         N13888 VOUT  1k TC=0,0 
R_R18         0 N17604  22 TC=0,0 
R_R19         N17612 VOUT  100 TC=0,0 
R_R20         N01338 VOUT  1 TC=0,0 
X_R21         N01633 N22137 N04894 POT PARAMS: SET=0 VALUE=5k
D_D5         N13888 0 D1N4148_1 
D_D6         N07409 0 D1N4148_1 
R_R23         0 N16734  1k TC=0,0 
R_R24         N17608 N17612  100 TC=0,0 
R_R25         N17604 N17608  22 TC=0,0 
Q_Q7         VIN N00836 N21567 QMJD31C 
Q_Q6         VIN N21567 N01338 QMJD31C 
Q_Q2         N00836 N21853 N00280 QBC856B 
Q_Q1         N21853 N21853 N00244 QBC856B 
Q_Q4         N00836 N22137 N22111 QBC846B 
Q_Q3         N21853 N00248 N22121 QBC846B 
Q_Q5         N00920 N07409 N22314 QBC846B 
Q_Q10         N00836 N01338 VOUT QBC846B 
Q_Q8         VIN N00248 N22662 QBC817-25 
Q_Q9         N00836 N22652 0 QBC817-25 
R_R26         N23600 N23262  150 TC=0,0 
R_R27         N22652 N23600  100 TC=0,0 

**** RESUMING deriva_termica.cir ****
.END
