
**** 11/10/25 23:17:00 ******* PSpice Lite (March 2016) ******* ID# 10813 ****

 ** Profile: "SCHEMATIC1-amplificarea"  [ C:\Users\crist\Desktop\test\Proiect-CEF2-PSpiceFiles\SCHEMATIC1\amplificarea.sim ] 


 ****     CIRCUIT DESCRIPTION


******************************************************************************




** Creating circuit file "amplificarea.cir" 
** WARNING: THIS AUTOMATICALLY GENERATED FILE MAY BE OVERWRITTEN BY SUBSEQUENT SIMULATIONS

*Libraries: 
* Profile Libraries :
* Local Libraries :
.LIB "C:/Users/crist/Desktop/lib_modelepspice_anexa_1/lib_modelepspice_anexa_1/modele_a1_lib/1n4148.lib" 
.LIB "C:/Users/crist/Desktop/lib_modelepspice_anexa_1/lib_modelepspice_anexa_1/modele_a1_lib/bc807-25.lib" 
.LIB "C:/Users/crist/Desktop/lib_modelepspice_anexa_1/lib_modelepspice_anexa_1/modele_a1_lib/bc817-25.lib" 
.LIB "C:/Users/crist/Desktop/lib_modelepspice_anexa_1/lib_modelepspice_anexa_1/modele_a1_lib/bc846b.lib" 
.LIB "C:/Users/crist/Desktop/lib_modelepspice_anexa_1/lib_modelepspice_anexa_1/modele_a1_lib/bc856b.lib" 
.LIB "C:/Users/crist/Desktop/lib_modelepspice_anexa_1/lib_modelepspice_anexa_1/modele_a1_lib/bzx84c2v7.lib" 
.LIB "C:/Users/crist/Desktop/lib_modelepspice_anexa_1/lib_modelepspice_anexa_1/modele_a1_lib/bzx84c5v1.lib" 
.LIB "C:/Users/crist/Desktop/lib_modelepspice_anexa_1/lib_modelepspice_anexa_1/modele_a1_lib/bzx84c5v6.lib" 
.LIB "C:/Users/crist/Desktop/lib_modelepspice_anexa_1/lib_modelepspice_anexa_1/modele_a1_lib/bzx84c6v2.lib" 
.LIB "C:/Users/crist/Desktop/lib_modelepspice_anexa_1/lib_modelepspice_anexa_1/modele_a1_lib/bzx84c6v8.lib" 
.LIB "C:/Users/crist/Desktop/lib_modelepspice_anexa_1/lib_modelepspice_anexa_1/modele_a1_lib/bzx84c8v2.lib" 
.LIB "C:/Users/crist/Desktop/lib_modelepspice_anexa_1/lib_modelepspice_anexa_1/modele_a1_lib/bzx84c10.lib" 
.LIB "C:/Users/crist/Desktop/lib_modelepspice_anexa_1/lib_modelepspice_anexa_1/modele_a1_lib/irfr120npbf.lib" 
.LIB "C:/Users/crist/Desktop/lib_modelepspice_anexa_1/lib_modelepspice_anexa_1/modele_a1_lib/mjd31cg.lib" 
.LIB "C:/Users/crist/Desktop/lib_modelepspice_anexa_1/lib_modelepspice_anexa_1/modele_a1_lib/mjd32cg.lib" 
.LIB "C:/Users/crist/Desktop/lib_modelepspice_anexa_1/lib_modelepspice_anexa_1/modele_a1_lib/mmbfj177lt1g.lib" 
.LIB "C:/Users/crist/Desktop/lib_modelepspice_anexa_1/lib_modelepspice_anexa_1/modele_a1_lib/mmbfj309lt1g.lib" 
* From [PSPICE NETLIST] section of C:\Users\crist\AppData\Roaming\SPB_Data\cdssetup\OrCAD_PSpice\17.2.0\PSpice.ini file:
.lib "nomd.lib" 

*Analysis directives: 
.AC LIN 20 1Hz 1MHz
---------------$
ERROR(ORPSIM-16103): Invalid value
.OPTIONS ADVCONV
.PROBE64 V(alias(*)) I(alias(*)) W(alias(*)) D(alias(*)) NOISE(alias(*)) 
.INC "..\SCHEMATIC1.net" 



**** INCLUDING SCHEMATIC1.net ****
* source PROIECT-CEF2
X_Q1         N00240 N00240 N00244 BC856/INF
X_Q2         N00521 N00240 N00280 BC856/INF
X_Q3         N00240 N00248 N00529 BC846/INF
X_Q4         N00521 N20153 N00525 BC846/INF
X_Q6         VIN N00521 N00829 BC846/INF
Q_Q8         N00521 N01231 0 BC817-25 
Q_Q7         VIN N00248 N02192 BC817-25 
X_Q9         N00521 N01333 VOUT BC846/INF
V_V1         VIN 0 10.8Vdc  
D_D4         0 N00248 BZX84C2V7/PLP 
R_R1         N00248 VIN  1.5k TC=0,0 
R_R2         N00244 VIN  100 TC=0,0 
R_R3         N00280 VIN  100 TC=0,0 
R_R4         N00920 N00529  100 TC=0,0 
R_R5         N00920 N00525  100 TC=0,0 
R_R6         N07289 VIN  2.2k TC=0,0 
R_R7         N01270 N01231  330 TC=0,0 
R_R8         0 N01270  68 TC=0,0 
R_R10         N12054 N02192  2.2k TC=0,0 
R_R11         0 N07222  10k TC=0,0 
R_R12         N16734 N04894  3.9k TC=0,0 
R_R14         N01633 N01641  100 TC=0,0 
R_R15         N01641 VOUT  1k TC=0,0 
R_R16         N13888 VOUT  1k TC=0,0 
R_R18         0 N17604  22 TC=0,0 
R_R19         N17612 VOUT  100 TC=0,0 
R_R20         N01333 VOUT  1 TC=0,0 
X_R21         N01633 N20127 N04894 POT PARAMS: SET=1 VALUE=5k
X_Q10         N00920 N07289 N07222 BC846/INF
R_R22         N01231 N12054  150 TC=0,0 
D_D5         N13888 0 D1N4148_1 
D_D6         N07289 0 D1N4148_1 
X_Q11         VIN N00829 N01333 BC846/INF
R_R23         0 N16734  1k TC=0,0 
R_R24         N17608 N17612  100 TC=0,0 
R_R25         N17604 N17608  22 TC=0,0 
L_L1         N20153 N20127  10uH  
C_C1         N20123 N20127  1n  TC=0,0 
V_V2         N20123 0 DC 0Vdc AC 1Vac 

**** RESUMING amplificarea.cir ****
.END
