
**** 11/15/25 22:55:49 ******* PSpice Lite (March 2016) ******* ID# 10813 ****

 ** Profile: "SCHEMATIC1-temperatura"  [ c:\users\crist\desktop\schematics\proiect-cef2-pspicefiles\schematic1\temperatura.sim ] 


 ****     CIRCUIT DESCRIPTION


******************************************************************************




** Creating circuit file "temperatura.cir" 
** WARNING: THIS AUTOMATICALLY GENERATED FILE MAY BE OVERWRITTEN BY SUBSEQUENT SIMULATIONS

*Libraries: 
* Profile Libraries :
* Local Libraries :
.LIB "c:/users/crist/desktop/lib_modelepspice_anexa_1/lib_modelepspice_anexa_1/modele_a1_lib/1n4148.lib" 
.LIB "c:/users/crist/desktop/lib_modelepspice_anexa_1/lib_modelepspice_anexa_1/modele_a1_lib/bc807-25.lib" 
.LIB "c:/users/crist/desktop/lib_modelepspice_anexa_1/lib_modelepspice_anexa_1/modele_a1_lib/bc817-25.lib" 
.LIB "c:/users/crist/desktop/lib_modelepspice_anexa_1/lib_modelepspice_anexa_1/modele_a1_lib/bc846b.lib" 
.LIB "c:/users/crist/desktop/lib_modelepspice_anexa_1/lib_modelepspice_anexa_1/modele_a1_lib/bc856b.lib" 
.LIB "c:/users/crist/desktop/lib_modelepspice_anexa_1/lib_modelepspice_anexa_1/modele_a1_lib/bzx84c2v7.lib" 
.LIB "c:/users/crist/desktop/lib_modelepspice_anexa_1/lib_modelepspice_anexa_1/modele_a1_lib/bzx84c5v1.lib" 
.LIB "c:/users/crist/desktop/lib_modelepspice_anexa_1/lib_modelepspice_anexa_1/modele_a1_lib/bzx84c5v6.lib" 
.LIB "c:/users/crist/desktop/lib_modelepspice_anexa_1/lib_modelepspice_anexa_1/modele_a1_lib/bzx84c6v2.lib" 
.LIB "c:/users/crist/desktop/lib_modelepspice_anexa_1/lib_modelepspice_anexa_1/modele_a1_lib/bzx84c6v8.lib" 
.LIB "c:/users/crist/desktop/lib_modelepspice_anexa_1/lib_modelepspice_anexa_1/modele_a1_lib/bzx84c8v2.lib" 
.LIB "c:/users/crist/desktop/lib_modelepspice_anexa_1/lib_modelepspice_anexa_1/modele_a1_lib/bzx84c10.lib" 
.LIB "c:/users/crist/desktop/lib_modelepspice_anexa_1/lib_modelepspice_anexa_1/modele_a1_lib/irfr120npbf.lib" 
.LIB "c:/users/crist/desktop/lib_modelepspice_anexa_1/lib_modelepspice_anexa_1/modele_a1_lib/mjd31cg.lib" 
.LIB "c:/users/crist/desktop/lib_modelepspice_anexa_1/lib_modelepspice_anexa_1/modele_a1_lib/mjd32cg.lib" 
.LIB "c:/users/crist/desktop/lib_modelepspice_anexa_1/lib_modelepspice_anexa_1/modele_a1_lib/mmbfj177lt1g.lib" 
.LIB "c:/users/crist/desktop/lib_modelepspice_anexa_1/lib_modelepspice_anexa_1/modele_a1_lib/mmbfj309lt1g.lib" 
* From [PSPICE NETLIST] section of C:\Users\crist\AppData\Roaming\SPB_Data\cdssetup\OrCAD_PSpice\17.2.0\PSpice.ini file:
.lib "nomd.lib" 

*Analysis directives: 
.DC LIN TEMP 0 150 0.1 
.OPTIONS ADVCONV
.PROBE64 V(alias(*)) I(alias(*)) W(alias(*)) D(alias(*)) NOISE(alias(*)) 
.INC "..\SCHEMATIC1.net" 



**** INCLUDING SCHEMATIC1.net ****
* source PROIECT-CEF2
V_V1         VIN 0 12Vdc
D_D4         0 N00248 BZX84C2V7/PLP 
R_R1         N00248 VIN  1.5k TC=0,0 
R_R2         N00244 VIN  100 TC=0,0 
R_R3         N00280 VIN  100 TC=0,0 
R_R4         N00920 N22121  100 TC=0,0 
R_R5         N00920 N22111  100 TC=0,0 
R_R6         N07409 VIN  2K TC=0,0 
R_R7         N01270 N22652  330 TC=0,0 
R_R8         0 N01270  68 TC=0,0 
R_R10         N23262 N22662  1.5k TC=0,0 
R_R11         0 N22314  51 TC=0,0 
R_R12         N16734 N04894  3.9k TC=0,0 
R_R14         N01633 N01641  100 TC=0,0 
R_R15         N01641 VOUT  1k TC=0,0 
R_R16         N13888 VOUT  1k TC=0,0 
R_R18         0 N17604  22 TC=0,0 
R_R19         N17612 VOUT  100 TC=0,0 
R_R20         N01338 N25769  1 TC=0,0 
X_R21         N01633 N26390 N04894 POT PARAMS: SET=1 VALUE=5k
D_D5         N13888 0 D1N4148_1 
D_D6         N07409 0 D1N4148_1 
R_R23         0 N16734  1k TC=0,0 
R_R24         N17608 N17612  100 TC=0,0 
R_R25         N17604 N17608  22 TC=0,0 
Q_Q7         VIN N00836 N21567 QMJD31C 
Q_Q6         VIN N21567 N01338 QMJD31C 
Q_Q2         N00836 N21853 N00280 QBC856B 
Q_Q1         N21853 N21853 N00244 QBC856B 
Q_Q4         N00836 N26390 N22111 QBC846B 
Q_Q3         N21853 N00248 N22121 QBC846B 
Q_Q5         N00920 N07409 N22314 QBC846B 
Q_Q10         N00836 N01338 VOUT QBC846B 
Q_Q8         VIN N00248 N22662 QBC817-25 
Q_Q9         N00836 N22652 0 QBC817-25 
R_R26         N23600 N23262  150 TC=0,0 
R_R27         N22652 N23600  100 TC=0,0 
R_R28         N25769 VOUT  0.47 TC=0,0 
R_R29         N25769 VOUT  0.47 TC=0,0 

**** RESUMING temperatura.cir ****
.END

**** 11/15/25 22:55:49 ******* PSpice Lite (March 2016) ******* ID# 10813 ****

 ** Profile: "SCHEMATIC1-temperatura"  [ c:\users\crist\desktop\schematics\proiect-cef2-pspicefiles\schematic1\temperatura.sim ] 


 ****     Diode MODEL PARAMETERS


******************************************************************************




               BZX84C2V7/PLP   D1N4148_1       
          IS  110.880000E-18    2.682000E-09 
           N     .92657         1.836        
         ISR    1.515900E-06    1.565000E-09 
         IKF  147.68             .04417      
          BV    2.7639        100            
         IBV     .06977       100.000000E-06 
          RS     .85899          .5664       
          TT   17.889000E-09   11.540000E-09 
         CJO  344.690000E-12    4.000000E-12 
          VJ     .72935          .5          
           M     .31964          .3333       


**** 11/15/25 22:55:49 ******* PSpice Lite (March 2016) ******* ID# 10813 ****

 ** Profile: "SCHEMATIC1-temperatura"  [ c:\users\crist\desktop\schematics\proiect-cef2-pspicefiles\schematic1\temperatura.sim ] 


 ****     BJT MODEL PARAMETERS


******************************************************************************




               QBC817-25       QBC846B         QBC856B         QMJD31C         
               NPN             NPN             PNP             NPN             
       LEVEL    1               1               1               1            
          IS   91.980000E-15   18.220000E-15   20.140000E-15   90.620200E-12 
          EG                                                    1.05         
          BF  338.8           324.4           315.3             3.418700E+03 
          NF    1.003            .9932           .9974          1.17603      
         VAF  107.9            82              39.15           29.2393       
         IKF     .4913           .109            .079            .108267     
         ISE  446.800000E-18  289.400000E-18    6.578000E-15  537.193000E-09 
          NE    1.65            1.4             1.45            4            
          BR   29.48            8.29            8.68          367.353        
          NR    1.002            .9931           .9952          5            
         VAR   25              17.9             9.5             1.631        
         IKR     .193            .09             .09            1.15207      
         ISC    5.109000E-15    9.982000E-12   16.330000E-15    1.157540E-09 
          NC    1.071           1.763           1.15            1.49179      
         ISS    0               0               0               0            
          RB    1              10              10              22.4853       
         RBM    1               5               5.000000E-06    1.000000E-12 
         IRB    1.000000E+03    5.000000E-06    5.000000E-06    2.209370E-03 
          RE     .2126           .649            .663         100.000000E-06 
          RC     .143            .7014           .718            .138633     
         CJE   38.250000E-12   12.440000E-12   11.350000E-12  373.889000E-12 
         VJE     .7004           .7579           .7071           .67672      
         MJE     .364            .3656           .3808           .575056     
         CJC   12.700000E-12    3.347000E-12    6.395000E-12  352.510000E-12 
         VJC     .4431           .5463           .4951           .884306     
         MJC     .3983           .391            .44             .473486     
        XCJC     .4555           .6193           .6288           .1          
         CJS    0               0               0               0            
         VJS     .75             .75             .75             .75         
         MJS     .333            .333            .333            .5          
          FC     .905            .979            .9059           .8          
          TF  522.900000E-12  490.800000E-12  654.600000E-12   10.000000E-09 
         XTF  219.7             9.51            5.387           3.4926       
         VTF    3.502           2.927           6.245          12.6615       
         ITF    7.257            .3131           .2108           .052395     
          TR   70.000000E-12   90.000000E-09   55.000000E-09    3.298030E-06 
         XTB                                                  999.997000E-15 
         XTI                                                    1.000000E-12 
          KF    0               0               0               0            
          AF    1               1               1               1            
          CN    2.42            2.42            2.2             2.42         
           D     .87             .87             .52             .87         



          JOB CONCLUDED

**** 11/15/25 22:55:49 ******* PSpice Lite (March 2016) ******* ID# 10813 ****

 ** Profile: "SCHEMATIC1-temperatura"  [ c:\users\crist\desktop\schematics\proiect-cef2-pspicefiles\schematic1\temperatura.sim ] 


 ****     JOB STATISTICS SUMMARY


******************************************************************************



  Total job time (using Solver 1)   =         .19
