
**** 11/04/25 22:02:46 ******* PSpice Lite (March 2016) ******* ID# 10813 ****

 ** Profile: "SCHEMATIC1-Schematic1"  [ c:\users\crist\desktop\test\proiect-cef2-PSpiceFiles\SCHEMATIC1\Schematic1.sim ] 


 ****     CIRCUIT DESCRIPTION


******************************************************************************




** Creating circuit file "Schematic1.cir" 
** WARNING: THIS AUTOMATICALLY GENERATED FILE MAY BE OVERWRITTEN BY SUBSEQUENT SIMULATIONS

*Libraries: 
* Profile Libraries :
* Local Libraries :
* From [PSPICE NETLIST] section of C:\Users\crist\AppData\Roaming\SPB_Data\cdssetup\OrCAD_PSpice\17.2.0\PSpice.ini file:
.lib "nomd.lib" 

*Analysis directives: 
.TRAN  0 1000ns 0 
.OPTIONS ADVCONV
.PROBE64 V(alias(*)) I(alias(*)) W(alias(*)) D(alias(*)) NOISE(alias(*)) 
.INC "..\SCHEMATIC1.net" 



**** INCLUDING SCHEMATIC1.net ****
* source PROIECT-CEF2
X_Q1         N00240 N00240 N00244 BC856/INF
X_Q2         N00521 N00240 N00280 BC856/INF
X_Q3         N00240 N00248 N00529 BC846/INF
X_Q4         N00521 N04898 N00525 BC846/INF
X_Q5         N00176 N00829 N01290 BC846/INF
X_Q6         N00176 N00836 N00829 BC846/INF
Q_Q7         N00836 N01227 GND BC817-25 
Q_Q8         N00176 N00248 N02192 BC817-25 
X_Q9         N01406 N01290 N00521 BC846/INF
V_V1         N00176 GND 12V
D_D4         GND N00248 BZX84C2V7/PLP 
R_R1         N00248 N00176  1.8k TC=0,0 
R_R2         N00244 N00176  100 TC=0,0 
R_R3         N00280 N00176  100 TC=0,0 
R_R4         N00920 N00529  100 TC=0,0 
R_R5         N00920 N00525  100 TC=0,0 
R_R6         N00252 N00176  1k TC=0,0 
R_R7         N01270 N01227  330 TC=0,0 
R_R8         GND N01270  68 TC=0,0 
R_R9         N01227 N01197  680 TC=0,0 
R_R10         N01197 N02192  1k TC=0,0 
R_R11         GND N00920  10k TC=0,0 
R_R12         GND N04894  5.6k TC=0,0 
R_R14         N01633 N01641  100 TC=0,0 
R_R15         N01641 N01406  1k TC=0,0 
R_R16         N01694 N01406  1k TC=0,0 
R_R18         GND N01720  22 TC=0,0 
R_R19         N01720 N01406  220 TC=0,0 
R_R20         N01290 N01406  1 TC=0,0 
X_R21         N01633 N04898 N04894 POT PARAMS: SET=1 VALUE=5k
D_D5         N01694 GND D1N4148_1 
D_D6         N00252 GND D1N4148_1 

**** RESUMING Schematic1.cir ****
.END

ERROR(ORPSIM-15142): Node N00836 is floating

ERROR(ORPSIM-15142): Node N01227 is floating

ERROR(ORPSIM-15142): Node GND is floating

ERROR(ORPSIM-15142): Node N00176 is floating

ERROR(ORPSIM-15142): Node N00248 is floating

ERROR(ORPSIM-15142): Node N02192 is floating

ERROR(ORPSIM-15142): Node N00244 is floating

ERROR(ORPSIM-15142): Node N00280 is floating

ERROR(ORPSIM-15142): Node N00920 is floating

ERROR(ORPSIM-15142): Node N00529 is floating

ERROR(ORPSIM-15142): Node N00525 is floating

ERROR(ORPSIM-15142): Node N00252 is floating

ERROR(ORPSIM-15142): Node N01270 is floating

ERROR(ORPSIM-15142): Node N01197 is floating

ERROR(ORPSIM-15142): Node N04894 is floating

ERROR(ORPSIM-15142): Node N01633 is floating

ERROR(ORPSIM-15142): Node N01641 is floating

ERROR(ORPSIM-15142): Node N01406 is floating

ERROR(ORPSIM-15142): Node N01694 is floating

ERROR(ORPSIM-15142): Node N01720 is floating

ERROR(ORPSIM-15142): Node N01290 is floating

ERROR(ORPSIM-15142): Node X_Q1.6 is floating

ERROR(ORPSIM-15142): Node X_Q1.5 is floating

ERROR(ORPSIM-15142): Node X_Q1.7 is floating

ERROR(ORPSIM-15142): Node N00240 is floating

ERROR(ORPSIM-15142): Node X_Q1.4 is floating

ERROR(ORPSIM-15142): Node X_Q1.8 is floating

ERROR(ORPSIM-15142): Node X_Q2.6 is floating

ERROR(ORPSIM-15142): Node X_Q2.5 is floating

ERROR(ORPSIM-15142): Node X_Q2.7 is floating

ERROR(ORPSIM-15142): Node N00521 is floating

ERROR(ORPSIM-15142): Node X_Q2.4 is floating

ERROR(ORPSIM-15142): Node X_Q2.8 is floating

ERROR(ORPSIM-15142): Node X_Q3.6 is floating

ERROR(ORPSIM-15142): Node X_Q3.5 is floating

ERROR(ORPSIM-15142): Node X_Q3.7 is floating

ERROR(ORPSIM-15142): Node X_Q3.4 is floating

ERROR(ORPSIM-15142): Node X_Q3.8 is floating

ERROR(ORPSIM-15142): Node X_Q4.6 is floating

ERROR(ORPSIM-15142): Node X_Q4.5 is floating

ERROR(ORPSIM-15142): Node X_Q4.7 is floating

ERROR(ORPSIM-15142): Node N04898 is floating

ERROR(ORPSIM-15142): Node X_Q4.4 is floating

ERROR(ORPSIM-15142): Node X_Q4.8 is floating

ERROR(ORPSIM-15142): Node X_Q5.6 is floating

ERROR(ORPSIM-15142): Node X_Q5.5 is floating

ERROR(ORPSIM-15142): Node X_Q5.7 is floating

ERROR(ORPSIM-15142): Node N00829 is floating

ERROR(ORPSIM-15142): Node X_Q5.4 is floating

ERROR(ORPSIM-15142): Node X_Q5.8 is floating

ERROR(ORPSIM-15142): Node X_Q6.6 is floating

ERROR(ORPSIM-15142): Node X_Q6.5 is floating

ERROR(ORPSIM-15142): Node X_Q6.7 is floating

ERROR(ORPSIM-15142): Node X_Q6.4 is floating

ERROR(ORPSIM-15142): Node X_Q6.8 is floating

ERROR(ORPSIM-15142): Node X_Q9.6 is floating

ERROR(ORPSIM-15142): Node X_Q9.5 is floating

ERROR(ORPSIM-15142): Node X_Q9.7 is floating

ERROR(ORPSIM-15142): Node X_Q9.4 is floating

ERROR(ORPSIM-15142): Node X_Q9.8 is floating
