
**** 11/06/25 16:06:10 ******* PSpice Lite (March 2016) ******* ID# 10813 ****

 ** Profile: "SCHEMATIC1-timp"  [ c:\users\crist\desktop\test\proiect-cef2-pspicefiles\schematic1\timp.sim ] 


 ****     CIRCUIT DESCRIPTION


******************************************************************************




** Creating circuit file "timp.cir" 
** WARNING: THIS AUTOMATICALLY GENERATED FILE MAY BE OVERWRITTEN BY SUBSEQUENT SIMULATIONS

*Libraries: 
* Profile Libraries :
* Local Libraries :
.LIB "c:/users/crist/desktop/lib_modelepspice_anexa_1/lib_modelepspice_anexa_1/modele_a1_lib/1n4148.lib" 
.LIB "c:/users/crist/desktop/lib_modelepspice_anexa_1/lib_modelepspice_anexa_1/modele_a1_lib/bc807-25.lib" 
.LIB "c:/users/crist/desktop/lib_modelepspice_anexa_1/lib_modelepspice_anexa_1/modele_a1_lib/bc817-25.lib" 
.LIB "c:/users/crist/desktop/lib_modelepspice_anexa_1/lib_modelepspice_anexa_1/modele_a1_lib/bc846b.lib" 
.LIB "c:/users/crist/desktop/lib_modelepspice_anexa_1/lib_modelepspice_anexa_1/modele_a1_lib/bc856b.lib" 
.LIB "c:/users/crist/desktop/lib_modelepspice_anexa_1/lib_modelepspice_anexa_1/modele_a1_lib/bzx84c2v7.lib" 
.LIB "c:/users/crist/desktop/lib_modelepspice_anexa_1/lib_modelepspice_anexa_1/modele_a1_lib/bzx84c5v1.lib" 
.LIB "c:/users/crist/desktop/lib_modelepspice_anexa_1/lib_modelepspice_anexa_1/modele_a1_lib/bzx84c5v6.lib" 
.LIB "c:/users/crist/desktop/lib_modelepspice_anexa_1/lib_modelepspice_anexa_1/modele_a1_lib/bzx84c6v2.lib" 
.LIB "c:/users/crist/desktop/lib_modelepspice_anexa_1/lib_modelepspice_anexa_1/modele_a1_lib/bzx84c6v8.lib" 
.LIB "c:/users/crist/desktop/lib_modelepspice_anexa_1/lib_modelepspice_anexa_1/modele_a1_lib/bzx84c8v2.lib" 
.LIB "c:/users/crist/desktop/lib_modelepspice_anexa_1/lib_modelepspice_anexa_1/modele_a1_lib/bzx84c10.lib" 
.LIB "c:/users/crist/desktop/lib_modelepspice_anexa_1/lib_modelepspice_anexa_1/modele_a1_lib/irfr120npbf.lib" 
.LIB "c:/users/crist/desktop/lib_modelepspice_anexa_1/lib_modelepspice_anexa_1/modele_a1_lib/mjd31cg.lib" 
.LIB "c:/users/crist/desktop/lib_modelepspice_anexa_1/lib_modelepspice_anexa_1/modele_a1_lib/mjd32cg.lib" 
.LIB "c:/users/crist/desktop/lib_modelepspice_anexa_1/lib_modelepspice_anexa_1/modele_a1_lib/mmbfj177lt1g.lib" 
.LIB "c:/users/crist/desktop/lib_modelepspice_anexa_1/lib_modelepspice_anexa_1/modele_a1_lib/mmbfj309lt1g.lib" 
* From [PSPICE NETLIST] section of C:\Users\crist\AppData\Roaming\SPB_Data\cdssetup\OrCAD_PSpice\17.2.0\PSpice.ini file:
.lib "nomd.lib" 

*Analysis directives: 
.DC LIN V_V1 0 30 0.1 
.OPTIONS ADVCONV
.PROBE64 V(alias(*)) I(alias(*)) W(alias(*)) D(alias(*)) NOISE(alias(*)) 
.INC "..\SCHEMATIC1.net" 



**** INCLUDING SCHEMATIC1.net ****
* source PROIECT-CEF2
X_Q1         N00240 N00240 N00244 BC856/INF
X_Q2         N00521 N00240 N00280 BC856/INF
X_Q3         N00240 N00248 N00529 BC846/INF
X_Q4         N00521 N04898 N00525 BC846/INF
X_Q5         VIN N00829 N01290 BC846/INF
X_Q6         VIN N00521 N00829 BC846/INF
Q_Q8         N00521 N01227 0 BC817-25 
Q_Q7         VIN N00248 N02192 BC817-25 
X_Q9         N00521 N01290 VOUT BC846/INF
V_V1         VIN 0 12Vdc
D_D4         0 N00248 BZX84C2V7/PLP 
R_R1         N00248 VIN  1.8k TC=0,0 
R_R2         N00244 VIN  100 TC=0,0 
R_R3         N00280 VIN  100 TC=0,0 
R_R4         N00920 N00529  100 TC=0,0 
R_R5         N00920 N00525  100 TC=0,0 
R_R6         N07289 VIN  1k TC=0,0 
R_R7         N01270 N01227  330 TC=0,0 
R_R8         0 N01270  68 TC=0,0 
R_R9         N01227 N01197  680 TC=0,0 
R_R10         N01197 N02192  1k TC=0,0 
R_R11         0 N07222  10k TC=0,0 
R_R12         0 N04894  5.6k TC=0,0 
R_R14         N01633 N01641  100 TC=0,0 
R_R15         N01641 VOUT  1k TC=0,0 
R_R16         N01694 VOUT  1k TC=0,0 
R_R18         0 N01720  22 TC=0,0 
R_R19         N01720 VOUT  220 TC=0,0 
R_R20         N01290 VOUT  1 TC=0,0 
X_R21         N01633 N04898 N04894 POT PARAMS: SET=1 VALUE=5k
D_D5         N01694 0 D1N4148_1 
D_D6         N07289 0 D1N4148_1 
X_Q10         N00920 N07289 N07222 BC846/INF

**** RESUMING timp.cir ****
.END

**** 11/06/25 16:06:10 ******* PSpice Lite (March 2016) ******* ID# 10813 ****

 ** Profile: "SCHEMATIC1-timp"  [ c:\users\crist\desktop\test\proiect-cef2-pspicefiles\schematic1\timp.sim ] 


 ****     Diode MODEL PARAMETERS


******************************************************************************




               BZX84C2V7/PLP   D1N4148_1       
          IS  110.880000E-18    2.682000E-09 
           N     .92657         1.836        
         ISR    1.515900E-06    1.565000E-09 
         IKF  147.68             .04417      
          BV    2.7639        100            
         IBV     .06977       100.000000E-06 
          RS     .85899          .5664       
          TT   17.889000E-09   11.540000E-09 
         CJO  344.690000E-12    4.000000E-12 
          VJ     .72935          .5          
           M     .31964          .3333       


**** 11/06/25 16:06:10 ******* PSpice Lite (March 2016) ******* ID# 10813 ****

 ** Profile: "SCHEMATIC1-timp"  [ c:\users\crist\desktop\test\proiect-cef2-pspicefiles\schematic1\timp.sim ] 


 ****     BJT MODEL PARAMETERS


******************************************************************************




               BC817-25        BC856           BC846           
               NPN             PNP             NPN             
       LEVEL    1               1               1            
          IS   32.530000E-15   28.000000E-15   45.000000E-15 
          BF  294.4           284.436         516.544        
          NF    1               1               1.01         
         VAF  100              43              74            
         IKF     .8311           .38             .708        
         ISE  318.500000E-15   24.903000E-15   55.668000E-15 
          NE    1.642           2.234           2.567        
          BR    5.855           4.8             7.745        
          NR    1               1.005           1.015        
         VAR                    6.96           14            
         IKR     .1075           .932           1            
         ISC  199.700000E-15  125.000000E-15    1.084000E-12 
          NC    2.09            2.074           4.063        
          NK     .5663                                       
         ISS    0               0               0            
          RB                    2.2             9            
         RBM                    1.5             4.5          
         IRB                  100.000000E-06  100.000000E-06 
          RE    0                .3              .35         
          RC     .4196          2.251           1.445        
         CJE   71.140000E-12   11.800000E-12   13.050000E-12 
         VJE     .5             1                .69         
         MJE     .3333           .435            .375        
         CJC   24.290000E-12    8.700000E-12    4.100000E-12 
         VJC     .5              .9              .75         
         MJC     .3333           .6              .42         
        XCJC    1                .65             .65         
         CJS    0               0               0            
         VJS     .75             .75             .75         
          FC                     .75             .75         
          TF  660.800000E-12  600.000000E-12  620.000000E-12 
         XTF   88.29            6.5            68            
         VTF   10               2               1            
         ITF    2.569            .314            .72         
         PTF                    1               1            
          TR   10.000000E-09    2.604000E-09    2.500000E-09 
         XTB    1.5             1.6             1.4          
         XTI                    3.3             3.2          
          KF    0               5.000000E-15   10.000000E-15 
          AF    1               1               1            
          CN    2.42            2.2             2.42         
           D     .87             .52             .87         



          JOB CONCLUDED

**** 11/06/25 16:06:10 ******* PSpice Lite (March 2016) ******* ID# 10813 ****

 ** Profile: "SCHEMATIC1-timp"  [ c:\users\crist\desktop\test\proiect-cef2-pspicefiles\schematic1\timp.sim ] 


 ****     JOB STATISTICS SUMMARY


******************************************************************************



  Total job time (using Solver 1)   =         .13
